* Generated by Xic from cell underdamped_JTL
.tran 1p 250p
.plot tran v(VIN) v(7)
.options ysep
B0 7 0 J1 jjud area=1
B1 8 0 J2 jjud area=1
B2 9 0 J3 jjud area=1
B3 10 0 J4 jjud area=1
L0 VIN 7 40p
L1 7 8 40p
L2 8 9 40p
L3 9 10 40p
R0 VCC 7 100
R1 VCC 8 100
R2 VCC 9 100
R3 VCC 10 100
V0 VCC 0 pwl 0 0 1p 1m
V1 VIN 0 gpulse 0 0 20p 2p 0 40p 1n
.subckt jtl IN OUT VBIAS
B0 5 7 9 jjr area=.25
B1 6 8 10 jjr area=.25
LP0 7 0 .1pH
LP1 8 0 .1pH
LT0 IN 5 2.1pH
LT1 5 4 2.1pH
LT2 4 6 2.1pH
LT3 6 OUT 2.1pH
R0 VBIAS 4 29
.ends jtl
.model jjr jj(rtype=1, cct=1, icon=10m, vg=2.8m, delv=0.08m,
+ icrit=1m, vshunt=0.5mV cap=1.31p)

.model jjud jj(rtype=1, cct=1, vg=2.8m, icrit=2u, vshunt=0.5mV cap=300f)
