* Generated by Xic from cell root2
J0 2 0 15 JT(J1*xj)
J1 3 0 18 JT(J1*xj)
J2 6 0 22 JT(J1*xj)
J3 7 0 23 JT(J1*xj)
I0 0 3 I1
I1 0 10 IJPM
I2 0 7 I1
M1 0 llm(L2 L3 M1*xm)
M2 0 llm(L0 L2 M1*xm)
L0 2 8 L1
L1 3 9 L1
L2 10 0 LJPM
L3 13 6 L1
L4 7 14 L1
V0 1 0 p0
V1 5 0 p1
X0 3 4 fjtl
X1 1 8 5PTL
X2 2 9 5PTL
X3 12 4 11 dff
X4 7 12 fjtl
X5 11 19 fjtl
X6 5 13 5PTL
X7 6 14 5PTL
.subckt dff DATA CLK OUT
J0 4 5 6 J(J1*xj)
J1 OUT 0 7 J(J1*xj)
L0 CLK 4 L0
L1 5 DATA L1
L2 OUT 5 L2
.ends dff
.subckt ptl IN OUT
J0 OUT 3 4 JT(J1*xj)
L0 IN OUT L1
L1 3 0 LJ1
.ends ptl
.subckt fjtl IN OUT
J0 4 0 6 J(J1*xj)
J1 5 0 7 J(J1*xj)
I1 0 3 I1
L0 4 IN L0
L1 3 4 L1
L2 5 3 L2
L3 OUT 5 L3
.ends fjtl
.subckt 5PTL IN OUT
X0 IN 4 ptl
X1 4 5 ptl
X2 5 6 ptl
X3 6 7 ptl
X4 7 OUT ptl
.ends 5PTL
