* source JTL
.SUBCKT SCHEMATIC1 PORTRIGHT-R  
.ENDS
