* Generated by Xic from cell root
.tran 1p 10n
.plot tran v(1) v(12) v(2) v(3) v(4) v(9) v(8) v(10) v(14) v(6)
.options ysep
.model jjtl jj(rtype=1, icrit=1u, cap=40f, r0=30, rn=30)
.temp -272
B0 2 0 16 jjtl area=2
B1 8 0 17 jjtl area=2
I0 0 2 pwl 0 0 5p $ibias
I1 0 13 pwl 0 0 5p .9u 4.9n .9u 5.0n -.9u 10n -.9u
I2 0 8 pwl 0 0 5p $ibias
K1 L3 L5 $k
L1 2 12 $ljtl
L2 11 3 5p
L3 13 14 $ljpm
L5 9 8 $ljtl
L6 15 10 5p
R0 14 0 1
V0 1 0 gpulse 0 0 50p 1p 5n
X0 11 4 bjtl
X1 1 12 5celljtl
X2 2 3 5celljtl
X3 15 6 bjtl
X4 1 9 5celljtl
X5 8 10 5celljtl
.subckt 5celljtl IN OUT
X0 IN 3 jtl
X1 3 4 jtl
X2 4 5 jtl
X3 5 6 jtl
X4 6 OUT jtl
.ends 5celljtl
.subckt bjtl IN OUT
B0 4 0 6 jjtl area=10
B1 5 0 7 jjtl area=10
I0 0 3 15u
L0 IN 4 5p
L1 4 3 5p
L2 3 5 5p
L3 5 OUT 5p
.ends bjtl
.subckt jtl IN OUT
B0 OUT 0 3 jjtl area=2
IBias 0 OUT pwl 0 0 10p $ibias
LJTL IN OUT $ljtl
.ends jtl
.save @IBias.X0.X1[c]
.save @IBias.X1.X1[c]
.save @IBias.X2.X1[c]
.save @IBias.X3.X1[c]
.save @IBias.X4.X1[c]
.save @IBias.X0.X2[c]
.save @IBias.X1.X2[c]
.save @IBias.X2.X2[c]
.save @IBias.X3.X2[c]
.save @IBias.X4.X2[c]
.save @IBias.X0.X4[c]
.save @IBias.X1.X4[c]
.save @IBias.X2.X4[c]
.save @IBias.X3.X4[c]
.save @IBias.X4.X4[c]
.save @IBias.X0.X5[c]
.save @IBias.X1.X5[c]
.save @IBias.X2.X5[c]
.save @IBias.X3.X5[c]
.save @IBias.X4.X5[c]
.save @I0.X0[c]
.save @I0.X3[c]
.save @I0[c]
.save @I1[c]
.save @I2[c]
