* Generated by Xic from cell root
.tran 1p 20n
.plot tran v(10) v(11) v(1) i(LT1)
.temp -272
.options ysep
.model jju jj(rtype=1, icrit=1u, rn=30, r0=30, cap=40f)
.model jjs jj(rtype=1, icrit=1u, cap=40f, rn=30, r0=30)
B0 2 0 9 jju area=1
B1 8 0 12 jju area=1
I0 0 5 pulse
K1 LT1 LT2 -$k1
K2 LT1 LT0 $k1
LT0 2 4 40p
LT1 5 0 1n
LT2 8 7 40p
V0 1 0 gpulse
X0 1 3 JTL
X1 3 4 bjtl5
X2 2 10 bjtl5
X3 1 6 JTL
X4 6 7 bjtl5
X5 8 11 bjtl5
.subckt bjtl5 IN OUT
B0 3 0 7 jju area=2
B1 4 0 8 jju area=2
B2 5 0 9 jju area=2
B3 6 0 10 jju area=2
B4 OUT 0 11 jju area=2
LT0 IN 3 41p
LT1 3 4 41p
LT2 4 5 41p
LT3 5 6 41p
LT4 6 OUT 41p
.ends bjtl5
.subckt JTL IN OUT
B0 4 0 6 jjs area=10
B1 5 0 7 jjs area=10
I0 0 3 15u
LT0 IN 4 100p
LT1 4 3 50p
LT2 3 5 50p
LT3 5 OUT 100p
.ends JTL
.save @I0.X0[c]
.save @I0.X3[c]
.save @I0[c]
