* Generated by Xic from cell Driver
.tran .1p 450p
.plot tran v(13) v(23)
.include Driver_models.inc
.options temp=-272
.tran 0.1e-12 450e-12
.model jjm jj(rtype=1,cct=1,icon=10m,vg=2.8m,delv=0.08m,
+ icrit=1.00E-5,r0=30,rn=30,cap=50f)
b1 18 10 22 jjm area=3.00E+0
b2 12 21 16 jjm area=4.00E+0
b3 14 15 25 jjm area=4.00E+0
b4 19 20 24 jjm area=5.50E+0
ibias 0 17 82.5u
itrig 13 0 sin(0 4.47E-5 5e9 50e-12 0)
l2 13 9 1.39E-11
l4 9 18 5.38E-12
l5 9 14 5.27E-12
l6 10 11 4.72E-12
l8 14 0 31.0E-12
l10 10 12 8.78E-13
l13 11 19 7.24E-12
lpi1 17 11 3.29E-13
lpj2 21 0 7.68E-13
lpj3 15 16 2.85E-12
lpj4 20 0 5.49E-13
r1 N11 N10 5.50E+0
r2 N9 N8 3.68E+0
r3 N7 N6 2.97E+0
r4 N14 N13 2.97E+0
rload 13 0 50
