(Symbol dff);
($Id:$);
(PHYSICAL);
(RESOLUTION 1000);
9 dff;
DS 0 1 1;
DF;
E
(ELECTRICAL);
(RESOLUTION 1000);
5 10 1 0 0:3000 25000:37000 0x0 IN;
5 10 2 1 10000:10000 45000:42000 0x0 CLK;
5 10 3 2 28000:17000 25000:37000 0x0 OUT;
5 18 1
  L SCED:
  W 0 10000 40000 10000 42000:
  B 10000 6000 10000 37000:
  W 0 5000 37000 3000 37000:
  W 0 15000 37000 17000 37000:
;
5 11 X 0 subckt;
9 dff;
DS 0 1 1;
(SymbolCall gnd);
5 10 0 0 20000 5000;
1 Bound 19000 2400 21000 5000;
9 gnd;
C 0 T 19000 4000;
(SymbolCall ind);
5 2 33p;
5 11 L 0;
5 10 2 0 10000 45000 L0+;
5 10 4 1 10000 35000 L0-;
5 15 11000 44000 0 -1;
1 Bound 10000 35000 11500 45000;
9 ind;
C 0 T 9000 35000;
(SymbolCall ind);
5 10 5 1 10000 25000 L1-;
5 10 1 0 0 25000 L1+;
5 15 1000 24000 1 0;
5 11 L 1;
5 2 222p;
1 Bound 0 23500 10000 25000;
( Rotate 270 );
9 ind;
C 0 MY R 0 -1 T 10000 26000;
(SymbolCall ind);
5 10 3 1 20000 25000 L2-;
5 10 5 0 10000 25000 L2+;
5 15 11000 24000 1 0;
5 11 L 2;
5 2 6.6p;
1 Bound 10000 23500 20000 25000;
( Rotate 270 );
9 ind;
C 0 MY R 0 -1 T 20000 26000;
(SymbolCall ind);
5 10 0 1 20000 5000 L3-;
5 10 6 0 20000 15000 L3+;
5 15 21000 14000 0 -1;
5 11 L 3;
5 2 3.3p;
1 Bound 20000 5000 21500 15000;
9 ind;
C 0 T 19000 5000;
(SymbolCall jj);
5 3 area=10;
5 1 jjs;
5 11 B 0;
5 10 4 0 10000 35000 B0+;
5 10 5 1 10000 25000 B0-;
5 10 7 2 9000 33000 B0_2;
1 Bound 8500 25000 11500 35000;
9 jj;
C 0 T 9000 25000;
(SymbolCall jj);
5 10 8 2 19000 23000 B1_2;
5 10 6 1 20000 15000 B1-;
5 10 3 0 20000 25000 B1+;
5 1 jjs;
5 11 B 1;
5 3 area=10;
1 Bound 18500 15000 21500 25000;
9 jj;
C 0 T 19000 15000;
L SCED;
5 10 3;
W2 0 20000 25000 28000 25000;
L NAME;
5 16 L 0 11;
94 <<L0>> 9750 43750 320 1275 1000;
5 16 B 0 11;
94 <<B0>> 8250 33750 320 1275 1000;
5 16 L 1 11;
94 <<L1>> 250 25250 0 1050 1000;
5 16 L 2 11;
94 <<L2>> 10250 25250 0 1275 1000;
5 16 B 1 11;
94 <<B1>> 18250 20750 320 1050 1000;
5 16 L 3 11;
94 <<L3>> 19750 13750 320 1275 1000;
L MODL;
5 16 B 0 1;
94 <<jjs>> 11750 34750 256 1725 1000;
5 16 B 1 1;
94 <<jjs>> 21750 20750 256 1725 1000;
L VALU;
5 16 L 0 2;
94 <<33p>> 11750 44750 33024 1838 1029;
5 16 L 1 2;
94 <<222p>> 5750 26250 33088 2426 1029;
5 16 L 2 2;
94 <<6.6p>> 16750 26250 33088 2058 1029;
5 16 L 3 2;
94 <<3.3p>> 21750 14750 33024 2058 1029;
L PARM;
5 16 B 0 3;
94 <<area=10>> 11750 25250 32768 3892 1029;
5 16 B 1 3;
94 <<area=10>> 22750 17250 32768 3892 1029;
DF;
E
* Generated by Xic from cell dff
.tran 1p 4n
B0 4 5 7 jjs area=10
B1 OUT 6 8 jjs area=10
L0 CLK 4 33p
L1 IN 5 222p
L2 5 OUT 6.6p
L3 6 0 3.3p
