(Symbol RA);
($Id:$);
(PHYSICAL);
(RESOLUTION 1000);
9 RA;
DS 0 1 1;
DF;
E
(ELECTRICAL);
(RESOLUTION 1000);
5 7102  (||1:-27000 15000||) (||1:-22000 2000||) (||1:-7000 2000||);
5 7101 tran 1p 100p;
5 18 0
;
5 11 X 0 subckt;
9 RA;
DS 0 1 1;
(SymbolCall D);
5 10 3 2 -7000 2000 X0OUT;
5 10 1 1 -15000 8000 X0CLK;
5 10 2 0 -22000 2000 X0IN;
5 11 X 0 subckt;
1 Bound -22000 -1000 -7000 8000;
9 D;
C 0 T -25000 -20000;
(SymbolCall gnd);
5 10 0 0 -37000 15000;
1 Bound -39600 14000 -37000 16000;
( Rotate 270 );
9 gnd;
C 0 R 0 -1 T -38000 16000;
(SymbolCall gnd);
5 10 0 0 -34000 -8000;
1 Bound -35000 -10600 -33000 -8000;
9 gnd;
C 0 T -35000 -9000;
(SymbolCall gnd);
5 10 0 0 5000 -8000;
1 Bound 4000 -10600 6000 -8000;
9 gnd;
C 0 T 4000 -9000;
(SymbolCall vsrc);
5 10 0 1 -37000 15000 VCLK_1;
5 10 1 0 -27000 15000 VCLK_0;
5 15 -31000 15000 -1 0;
5 3 0 0 20p 1p 25p;
5 2 gpulse;
5 11 V.VCLK 0;
5 5 nophys;
1 Bound -37000 13000 -27000 17000;
( Rotate 90 );
9 vsrc;
C 0 MY R 0 1 T -37000 13000;
(SymbolCall vsrc);
5 10 0 1 -34000 -8000 VIN_1;
5 10 2 0 -34000 2000 VIN_0;
5 15 -34000 -2000 0 -1;
5 3 0 0 10p 1p 50p;
5 2 gpulse;
5 11 V.VIN 1;
5 5 nophys;
1 Bound -36000 -8000 -32000 2000;
9 vsrc;
C 0 T -36000 -8000;
L SCED;
5 10 1;
W2 0 -27000 15000 -15000 15000 -15000 8000;
5 10 2;
W2 0 -34000 2000 -22000 2000;
5 10 3;
W2 0 -7000 2000 5000 2000;
L NAME;
5 16 V 0 11;
94 <<VCLK>> -36750 17250 0 2426 1029;
5 16 X 0 11;
94 <<X0>> -23000 10000 320 1275 1000;
5 16 V 1 11;
94 <<VIN>> -36250 750 320 1544 1029;
L VALU;
5 16 V 0 2;
94 <<gpulse>> -27250 12750 33088 3375 1000;
5 16 V 1 2;
94 <<gpulse>> -31750 1750 33024 3375 1000;
L PARM;
5 16 V 0 3;
94 <<0 0 20p 1p 25p>> -36750 11750 33024 8250 1000;
5 16 V 1 3;
94 <<0 0 10p 1p 50p>> -31750 -7750 32768 8025 1000;
L SPTX;
94 <<.model jjd jj(rtype=1, icrit=1u, r0=30, rn=30, cap=4f)>> -40000 24000 0 47744 1792;
94 <<.options ysep>> -40000 21000 0 12032 1792;
DF;
E
* Generated by Xic from cell RA
.tran 1p 100p
.plot tran  v(1) v(2) v(3)
.model jjd jj(rtype=1, icrit=1u, r0=30, rn=30, cap=4f)
.options ysep
VCLK 1 0 gpulse 0 0 20p 1p 25p
VIN 2 0 gpulse 0 0 10p 1p 50p
X0 2 1 3 D
.subckt D IN CLK OUT
B0 4 5 7 jjd area=250
B1 OUT 6 8 jjd area=250
L0 CLK 4 1.3p
L1 IN 5 8.9p
L2 5 OUT .26p
L3 6 0 .13p
.ends D
