* Generated by Xic from cell root 2
.model jjtl jj(rtype=1, icrit=1u, cap=40f, r0=30, rn=30)
.model jjs jj(icrit=.125m, cap=40f, vshunt=1m)
.temp -272
.options ysep
B0 1 0 20 jjtl area=2
B3 4 0 24 jjtl area=2
I0 0 1 pwl 0 0 5p $ibias
I1 0 15 pulse -1u 1u 0 5p 5p 10n 20n
I2 0 4 pwl 0 0 5p $ibias
K1 L0 L6 $k1
K2 L6 L7 $k1
L0 1 10 $ljtl
L1 8 11 5p
L6 15 0 $ljpm
L7 6 4 $ljtl
L8 17 19 5p
R0 7 0 $rterm
R1 16 0 $rterm
V0 9 0 gpulse 0 0 50p 1p 10n
V1 18 0 gpulse 0 0 50p 1p 10n
X0 8 7 bjtl
X2 9 10 5PTL
X3 1 11 5PTL
X4 17 16 bjtl
X5 18 6 5PTL
X6 4 19 5PTL
.subckt ptl IN OUT
B0 OUT 3 4 jjtl area=2
L0 IN OUT $ljtl
L1 3 0 .1p
.ends ptl
.subckt bjtl IN OUT
B0 4 0 5 jjtl area=10
B1 OUT 0 6 jjtl area=10
I0 0 3 15u
L0 IN 4 5p
L1 4 3 5p
L2 3 OUT 5p
.ends bjtl
.subckt 5PTL IN OUT
X0 IN 3 ptl
X1 3 4 ptl
X2 4 5 ptl
X3 5 6 ptl
X4 6 OUT ptl
.ends 5PTL
.save @I0.X0[c]
.save @I0.X4[c]
.save @I0[c]
.save @I1[c]
.save @I2[c]

.control
set ljpm=1n
set ljtl=41p
set k1=0.01
set k2=0.01
set ibias=0
set rterm=1

run
.endc

.tran 1p 20n
