(Symbol root);
($Id:$);
(xic.exe 4.3.6 Win32 i386 11/19/2018 20:05 GMT);
(PHYSICAL);
(RESOLUTION 1000);
( CREATED 11/19/2018 20:5:2, MODIFIED 11/19/2018 20:5:2 );
9 root;
DS 0 1 1;
DF;
E
(ELECTRICAL);
(RESOLUTION 1000);
5 7102 (||2:129000 -15000||);
5 7101 tran 1p 20n;
5 11 X 0 subckt;
9 root;
DS 0 1 1;
(SymbolCall CMP);
5 11 X.X3 0 subckt;
5 10 1 0 73000 -4000 X3_0;
5 10 2 1 118000 -4000 X3_1;
1 Bound 73000 -36600 137000 8600;
9 CMP;
C 0 T 68000 -10000;
(SymbolCall JTL);
5 10 3 1 35000 -4000 X0_1;
5 10 4 0 16000 -4000 X0_0;
5 11 X.X0 1 subckt;
1 Bound 16000 -7000 35000 -1000;
9 JTL;
C 0 T 28000 -6000;
(SymbolCall JTL);
5 11 X.X1 2 subckt;
5 10 5 1 54000 -4000 X1_1;
5 10 3 0 35000 -4000 X1_0;
1 Bound 35000 -7000 54000 -1000;
9 JTL;
C 0 T 47000 -6000;
(SymbolCall JTL);
5 11 X.X2 3 subckt;
5 10 5 0 54000 -4000 X2_0;
5 10 1 1 73000 -4000 X2_1;
1 Bound 54000 -7000 73000 -1000;
9 JTL;
C 0 T 66000 -6000;
(SymbolCall JTL);
5 11 X.X4 4 subckt;
5 10 2 0 118000 -4000 X4_0;
5 10 6 1 137000 -4000 X4_1;
1 Bound 118000 -7000 137000 -1000;
9 JTL;
C 0 T 130000 -6000;
(SymbolCall JTL);
5 11 X.X5 5 subckt;
5 10 6 0 137000 -4000 X5_0;
5 10 8 1 156000 -4000 X5_1;
1 Bound 137000 -7000 156000 -1000;
9 JTL;
C 0 T 149000 -6000;
(SymbolCall gnd);
5 10 0 0 6000 -14000;
1 Bound 5000 -16600 7000 -14000;
9 gnd;
C 0 T 5000 -15000;
(SymbolCall res);
5 10 4 1 16000 -4000 R1-;
5 10 7 0 6000 -4000 R1+;
5 15 7000 -5000 1 0 "<v>/<value>O";
5 11 R.R1 0;
5 2 50;
1 Bound 6000 -5250 16000 -3000;
( Rotate 90 );
9 res;
C 0 R 0 1 T 6000 -4000;
(SymbolCall vsrc);
5 10 0 1 6000 -14000 V0_1;
5 10 7 0 6000 -4000 V0_0;
5 15 6000 -8000 0 -1;
5 2 pulse(0 1mV 2ps 2ps 2ps 20ps .5ns);
5 11 V.V0 0;
5 5 nophys;
1 Bound 4000 -14000 8000 -4000;
9 vsrc;
C 0 T 4000 -14000;
L NAME;
5 16 X 2 11;
94 <<X1>> 30000 2250 0 1050 1000;
5 16 X 4 11;
94 <<X4>> 131000 250 0 1275 1000;
5 16 X 5 11;
94 <<X5>> 150000 250 0 1275 1000;
5 16 X 3 11;
94 <<X2>> 74000 -750 0 1275 1000;
5 16 R 0 11;
94 <<R1>> 6250 -2750 0 1050 1000;
5 16 X 0 11;
94 <<X3>> 70225 -4750 0 1275 1000;
5 16 V 0 11;
94 <<V0>> 3750 -5250 320 1275 1000;
L VALU;
5 16 R 0 2;
94 <<50>> 15750 -5500 33088 1275 1000;
5 16 V 0 2;
94 <<pulse(0 1mV 2ps 2ps 2ps 20ps .5ns)>> -6750 -17250 33024 18975 1000;
L SPTX;
94 <<.include root_models.inc>> 0 1000 0 12450 1000;
94 <<.tran 1p 20n uic>> 0 0 0 8700 1000;
DF;
E
* Generated by Xic from cell root
.tran 1p 20n
.plot tran LJPM.x3#branch
.include root_models.inc
.tran 1p 20n uic
R1 7 4 50
V0 7 0 pulse(0 1mV 2ps 2ps 2ps 20ps .5ns)
X0 4 3 JTL
X1 3 5 JTL
X2 5 1 JTL
X3 1 2 CMP
X4 2 6 JTL
X5 6 8 JTL
.subckt JTL 4 5
B0 2 0 6 jjs area=4
B1 3 0 7 jjs area=4
I0 0 1 3.5u
LT0 4 2 125p
LT1 2 1 125p
LT2 1 3 125p
LT3 3 5 125p
.ends JTL
.subckt CMP 6 7
BB 2 0 11 jjs area=4
BE1 4 1 8 jjs area=4
BE2 4 0 9 jjs area=4
BQ 5 0 12 jjs area=1
BT 1 2 10 jjs area=4
IBS 2 0 -3.25u
IRABI 3 0 sin(5u 5u 100meg)
IT 0 1 3.5u
K1 LJPM LC 0.1
LC 2 5 60p
LJPM 3 0 645p
LTIN 6 4 5p
LTOUT 2 7 5p
.ends CMP
.save @IBS.X3[c]
.save @IT.X3[c]
.save @IRABI.X3[c]
.save @I0.X2[c]
.save @I0.X1[c]
.save @I0.X0[c]
.save @I0.X4[c]
.save @I0.X5[c]
