* Generated by Xic from cell root
.tran 1p 1n
.plot tran  v(6) v(12) v(11)/2/pi v(13)/2/pi
.model jjs jj(icrit=1u, cap=40f, vshunt=90u)
.temp -272
.options ysep
B0 1 4 10 jjs area=4
B1 1 0 11 jjs area=4
B2 9 1 13 jjs area=4
I1 0 1 $i1
I2 0 2 $i2
LT0 4 0 60p
LT1 2 9 0p
LT2 1 3 0p
V0 6 0 gpulse 0 0 0.1n 1p 0.25n
X0 6 5 JTL
X1 5 7 JTL
X2 7 2 JTL
X3 3 8 JTL
X4 8 12 JTL
.subckt JTL IN OUT
B0 4 0 6 jjs area=4
B1 5 0 7 jjs area=4
I0 0 3 6u
LT0 IN 4 20.5p
LT1 4 3 20.5p
LT2 3 5 20.5p
LT3 5 OUT 20.5p
.ends JTL
.save @I0.X0[c]
.save @I0.X1[c]
.save @I0.X2[c]
.save @I0.X3[c]
.save @I0.X4[c]
.save @I2[c]
.save @I1[c]
