* Generated by Xic from cell root
.tran 1p 2n
.plot tran LJPM#branch v(2) v(5) v(1) v(13)
.temp -272
.options ysep
.model jjs jj(icrit=1u, cap=40f, vshunt=90u)
B0 6 1 12 jjs area=4
B1 1 11 14 jjs area=4
B2 1 0 15 jjs area=4
I0 0 5 $ib2
I1 0 10 pulse -1u 1u 0 5p 5p 0.5n 1n
I2 0 1 $ib1
K1 LC LJPM 0.1
LC 11 0 60p
LJPM 10 0 1n
LT0 5 6 1p
LT1 9 1 1p
V0 2 0 gpulse 0 0 50p 1p 0.2n
X0 2 3 JTL
X1 3 4 JTL
X2 4 5 JTL
X3 7 13 JTL
X4 8 7 JTL
X5 9 8 JTL
.subckt JTL IN OUT
B0 4 0 6 jjs area=5
B1 5 0 7 jjs area=5
I0 0 3 7.5u
LT0 IN 4 100p
LT1 4 3 100p
LT2 3 5 100p
LT3 5 OUT 100p
.ends JTL
.save @I0.X2[c]
.save @I0.X5[c]
.save @I0.X1[c]
.save @I0.X0[c]
.save @I0.X3[c]
.save @I0.X4[c]
.save @I1[c]
.save @I2[c]
.save @I0[c]
